/*--------------------------------*- C++ -*----------------------------------*\
| =========                 |                                                 |
| \\      /  F ield         | OpenFOAM: The Open Source CFD Toolbox           |
|  \\    /   O peration     | Version:  dev                                   |
|   \\  /    A nd           | Web:      www.OpenFOAM.org                      |
|    \\/     M anipulation  |                                                 |
\*---------------------------------------------------------------------------*/
FoamFile
{
    version     2.0;
    format      ascii;
    class       polyBoundaryMesh;
    location    "constant/polyMesh";
    object      boundary;
}
// * * * * * * * * * * * * * * * * * * * * * * * * * * * * * * * * * * * * * //

4
(
    intlet
    {
        type            patch;
        nFaces          1600;
        startFace       279875;
    }
    outlet
    {
        type            patch;
        nFaces          1600;
        startFace       281475;
    }
    walls
    {
        type            patch;
        nFaces          9600;
        startFace       283075;
    }
    cone
    {
        type            wall;
        inGroups        1(wall);
        nFaces          468;
        startFace       292675;
    }
)

// ************************************************************************* //
