/*--------------------------------*- C++ -*----------------------------------*\
| =========                 |                                                 |
| \\      /  F ield         | OpenFOAM: The Open Source CFD Toolbox           |
|  \\    /   O peration     | Version:  4.1                                   |
|   \\  /    A nd           | Web:      www.OpenFOAM.org                      |
|    \\/     M anipulation  |                                                 |
\*---------------------------------------------------------------------------*/
FoamFile
{
    version     2.0;
    format      ascii;
    class       extendedFeatureEdgeMesh;
    location    "constant/extendedFeatureEdgeMesh";
    object      outlet6.extendedFeatureEdgeMesh;
}
// * * * * * * * * * * * * * * * * * * * * * * * * * * * * * * * * * * * * * //

// points

16
(
(0.0187669 0.0217811 0.0449534)
(0.0187231 0.0217727 0.0449534)
(0.0192397 0.0214748 0.0449534)
(0.0192425 0.0215069 0.0449534)
(0.0187503 0.021677 0.0449534)
(0.0188511 0.0217419 0.0449534)
(0.0188173 0.0215636 0.0449534)
(0.0189448 0.0216947 0.0449534)
(0.0188926 0.0215023 0.0449534)
(0.0190412 0.0216442 0.0449534)
(0.0189719 0.0214739 0.0449534)
(0.019051 0.021459 0.0449534)
(0.0191265 0.0214549 0.0449534)
(0.0191953 0.0214588 0.0449534)
(0.0192063 0.021549 0.0449534)
(0.0191337 0.0215952 0.0449534)
)

// edges

16
(
(0 1)
(1 4)
(5 0)
(4 6)
(7 5)
(6 8)
(9 7)
(8 10)
(10 11)
(11 12)
(12 13)
(13 2)
(2 3)
(3 14)
(14 15)
(15 9)
)

// concaveStart mixedStart nonFeatureStart
0 0 4
// internalStart flatStart openStart multipleStart
0 0 0 16
// normals
15{(0 0 1)}
// normal volume types

15
(
0
0
0
0
0
0
0
0
0
0
0
0
0
0
0
)

// normalDirections

16
(
1(1)
1(1)
1(1)
1(1)
1(1)
1(1)
1(1)
1(1)
1(1)
1(1)
1(1)
1(1)
1(1)
1(1)
1(1)
1(1)
)

// edgeNormals

16
(
1(0)
1(0)
1(1)
1(2)
1(3)
1(4)
1(5)
1(6)
1(7)
1(8)
1(9)
1(10)
1(11)
1(12)
1(13)
1(14)
)

// featurePointNormals

4
(
1(0)
1(0)
1(10)
1(11)
)

// featurePointEdges

4
(
2(0 2)
2(0 1)
2(11 12)
2(12 13)
)

// regionEdges

16
(
0
1
2
3
4
5
6
7
8
9
10
11
12
13
14
15
)



// ************************************************************************* //
