/*--------------------------------*- C++ -*----------------------------------*\
| =========                 |                                                 |
| \\      /  F ield         | OpenFOAM: The Open Source CFD Toolbox           |
|  \\    /   O peration     | Version:  4.1                                   |
|   \\  /    A nd           | Web:      www.OpenFOAM.org                      |
|    \\/     M anipulation  |                                                 |
\*---------------------------------------------------------------------------*/
FoamFile
{
    version     2.0;
    format      ascii;
    class       extendedFeatureEdgeMesh;
    location    "constant/extendedFeatureEdgeMesh";
    object      walls.extendedFeatureEdgeMesh;
}
// * * * * * * * * * * * * * * * * * * * * * * * * * * * * * * * * * * * * * //

// points

686
(
(0.0218568 0.0158777 0.0308615)
(0.0220513 0.0163985 0.0316515)
(0.022912 0.017124 0.0337626)
(0.0212648 0.014362 0.0345304)
(0.021022 0.0217673 0.0418714)
(0.0192737 0.0135106 0.0386482)
(0.0192037 0.013323 0.0386052)
(0.0203352 0.0142033 0.0377819)
(0.0205815 0.0151652 0.0265548)
(0.0218635 0.0157878 0.0289555)
(0.0230164 0.0184992 0.0313512)
(0.0210248 0.0217842 0.0419402)
(0.0216341 0.0220621 0.0415472)
(0.00916384 0.0080463 0.0371195)
(0.00916384 0.0080245 0.0370755)
(0.00916384 0.00809883 0.037136)
(0.0193446 0.0132115 0.0390632)
(0.019306 0.0131985 0.0390632)
(0.022493 0.0159121 0.0354297)
(0.0192425 0.0215069 0.0449534)
(0.0192397 0.0214748 0.0449534)
(0.0167877 0.00946141 0.0363588)
(0.0169374 0.00971232 0.0364391)
(0.0169582 0.00963005 0.0364219)
(0.0222901 0.0168248 0.0311218)
(0.0224116 0.0168381 0.0311264)
(0.0221797 0.0169001 0.0310876)
(0.0220953 0.0159328 0.0299842)
(0.0214961 0.0220716 0.0416405)
(0.0216792 0.0161298 0.0271861)
(0.00916384 0.00817098 0.037116)
(0.0225385 0.0167778 0.0309944)
(0.0231299 0.017808 0.0320512)
(0.0224695 0.0159006 0.0354297)
(0.0232812 0.0181276 0.032587)
(0.0191953 0.0214588 0.0449534)
(0.0231849 0.0182105 0.031138)
(0.0218999 0.016035 0.0305211)
(0.00916384 0.00804455 0.037013)
(0.0244362 0.0215417 0.0339781)
(0.0244587 0.0215851 0.0339781)
(0.0244449 0.0216387 0.0339781)
(0.00916384 0.00842281 0.0369977)
(0.0165193 0.00954913 0.0362386)
(0.0167947 0.00983536 0.0363521)
(0.0187231 0.0217727 0.0449534)
(0.0213544 0.0222035 0.0414739)
(0.0240641 0.021885 0.0339781)
(0.0240466 0.0216902 0.0339781)
(0.0228791 0.018441 0.0311223)
(0.0222112 0.0161431 0.0354297)
(0.0222506 0.0161993 0.0354297)
(0.0222085 0.0160617 0.0354297)
(0.0190773 0.013443 0.0390632)
(0.0191237 0.0135055 0.0390632)
(0.0190677 0.0133554 0.0390632)
(0.0204735 0.0149179 0.0255019)
(0.020321 0.0150195 0.0255019)
(0.0203773 0.0149444 0.0255019)
(0.0203282 0.0151168 0.0255019)
(0.0209763 0.0156406 0.0255019)
(0.020925 0.0156842 0.0255019)
(0.022844 0.0183922 0.0305247)
(0.0241222 0.0218798 0.0339781)
(0.0230084 0.0184992 0.031237)
(0.0213319 0.0221506 0.0416038)
(0.0187669 0.0217811 0.0449534)
(0.0230049 0.0182504 0.0327461)
(0.0229605 0.0180122 0.0328432)
(0.0228185 0.0178474 0.0320182)
(0.0191135 0.0132927 0.0390632)
(0.0212464 0.0142007 0.0347746)
(0.0171728 0.0100792 0.036404)
(0.0167999 0.00983703 0.0364262)
(0.0165198 0.00954329 0.0363061)
(0.00916384 0.00841168 0.0370364)
(0.00916384 0.00819917 0.0368632)
(0.0152005 0.0107052 0.0382707)
(0.0151541 0.0106897 0.0382707)
(0.015212 0.0107503 0.0382707)
(0.0201211 0.0242968 0.0443837)
(0.0174253 0.0229883 0.0461962)
(0.0210174 0.0229062 0.0431427)
(0.0174253 0.0229898 0.046153)
(0.0207561 0.0228381 0.0433507)
(0.0174253 0.0231115 0.0459113)
(0.0174253 0.0232946 0.0460132)
(0.0148657 0.0110609 0.0382707)
(0.0147398 0.0109288 0.0382707)
(0.0198795 0.0246268 0.0443837)
(0.0198053 0.0243538 0.0443837)
(0.0206882 0.0230094 0.0428455)
(0.0149432 0.0110457 0.0382707)
(0.0147752 0.0108695 0.0382707)
(0.0199401 0.0246535 0.0443837)
(0.0198411 0.0242896 0.0443837)
(0.0207415 0.0230264 0.0430552)
(0.0174253 0.0233077 0.0460741)
(0.0174253 0.0230635 0.0459383)
(0.0193683 0.0132455 0.0390632)
(0.0225083 0.0159402 0.0354297)
(0.022512 0.0159743 0.0354297)
(0.0192063 0.021549 0.0449534)
(0.00916384 0.00811725 0.0369137)
(0.00916384 0.00815356 0.0368873)
(0.00916384 0.00808323 0.0369524)
(0.00916384 0.00830714 0.0370685)
(0.00916384 0.00824597 0.037085)
(0.00916384 0.00836042 0.0370558)
(0.0192507 0.0132135 0.0390632)
(0.0191847 0.0132478 0.0390632)
(0.0193225 0.0133953 0.0390632)
(0.019367 0.0133462 0.0390632)
(0.0192586 0.0134433 0.0390632)
(0.0223861 0.0159241 0.0354297)
(0.022326 0.0159567 0.0354297)
(0.0224348 0.0159048 0.0354297)
(0.0224346 0.0160828 0.0354297)
(0.0224752 0.0160373 0.0354297)
(0.0223801 0.016134 0.0354297)
(0.019051 0.021459 0.0449534)
(0.0189719 0.0214739 0.0449534)
(0.0191265 0.0214549 0.0449534)
(0.0189448 0.0216947 0.0449534)
(0.0190412 0.0216442 0.0449534)
(0.0188511 0.0217419 0.0449534)
(0.022501 0.0160039 0.0354297)
(0.0191337 0.0215952 0.0449534)
(0.0207057 0.0150621 0.0255019)
(0.0208242 0.0151754 0.0255019)
(0.0242382 0.0215458 0.0339781)
(0.0241706 0.0215764 0.0339781)
(0.0243062 0.0215286 0.0339781)
(0.0243787 0.021525 0.0339781)
(0.0243932 0.0216864 0.0339781)
(0.0243244 0.0217321 0.0339781)
(0.0242593 0.0217802 0.0339781)
(0.0241933 0.0218298 0.0339781)
(0.019379 0.0132933 0.0390632)
(0.00916384 0.00835567 0.036927)
(0.00916384 0.00826342 0.0368678)
(0.0187503 0.021677 0.0449534)
(0.0188173 0.0215636 0.0449534)
(0.024037 0.0218002 0.0339781)
(0.0203729 0.0152215 0.0255019)
(0.0209954 0.0155548 0.0255019)
(0.020846 0.015678 0.0255019)
(0.0207561 0.0156412 0.0255019)
(0.0206721 0.0155934 0.0255019)
(0.0205989 0.0155374 0.0255019)
(0.0205411 0.0154764 0.0255019)
(0.0204882 0.0154053 0.0255019)
(0.0204291 0.015319 0.0255019)
(0.0209215 0.0153014 0.0255019)
(0.0209778 0.0154348 0.0255019)
(0.0240989 0.0216201 0.0339781)
(0.0188926 0.0215023 0.0449534)
(0.0223128 0.0161845 0.0354297)
(0.0222568 0.016001 0.0354297)
(0.0191883 0.0134928 0.0390632)
(0.0201471 0.0243476 0.0443837)
(0.0201517 0.0244094 0.0443837)
(0.0174253 0.0230245 0.0462311)
(0.0174253 0.0230817 0.0462482)
(0.0149265 0.0107908 0.0382707)
(0.0148507 0.010825 0.0382707)
(0.0150039 0.0107574 0.0382707)
(0.0150694 0.0109407 0.0382707)
(0.015122 0.0108812 0.0382707)
(0.0150124 0.0109946 0.0382707)
(0.0174253 0.0230252 0.0460512)
(0.0174253 0.0230422 0.0459958)
(0.0174253 0.0230088 0.0461038)
(0.0174253 0.0232456 0.0461738)
(0.0174253 0.0232006 0.0462105)
(0.0174253 0.0232805 0.0461283)
(0.0199646 0.0242588 0.0443837)
(0.0199042 0.0242693 0.0443837)
(0.0200222 0.0242585 0.0443837)
(0.0200518 0.0245794 0.0443837)
(0.0200954 0.0245275 0.0443837)
(0.0200002 0.0246225 0.0443837)
(0.0201316 0.0244701 0.0443837)
(0.0174253 0.0231432 0.0462383)
(0.0200769 0.0242692 0.0443837)
(0.0151777 0.0108134 0.0382707)
(0.0150842 0.0107154 0.0382707)
(0.0174253 0.0232089 0.0459476)
(0.014784 0.0110072 0.0382707)
(0.0198263 0.0244966 0.0443837)
(0.0226627 0.0173734 0.0328632)
(0.0226214 0.0170102 0.033324)
(0.0221062 0.0170344 0.0294845)
(0.0219747 0.01676 0.0289085)
(0.0222197 0.0172368 0.0300961)
(0.0218097 0.0155985 0.0314366)
(0.0217098 0.0153265 0.0319809)
(0.0206762 0.0124249 0.035293)
(0.020346 0.0120315 0.035363)
(0.0199285 0.0115893 0.0354885)
(0.0199085 0.0114797 0.0353401)
(0.0203611 0.0119565 0.0352022)
(0.0207344 0.0124045 0.0351066)
(0.0194673 0.0111546 0.0357289)
(0.018961 0.0107426 0.0359911)
(0.0174249 0.00947088 0.0362021)
(0.0176113 0.00968225 0.0362157)
(0.0179016 0.00994503 0.0361798)
(0.0209684 0.0127613 0.0349858)
(0.0211766 0.013152 0.034759)
(0.0210679 0.0130511 0.0350462)
(0.0208755 0.012713 0.0352186)
(0.0172576 0.00930685 0.0361762)
(0.0159828 0.0084887 0.0358336)
(0.016539 0.00880848 0.0359708)
(0.016999 0.00911206 0.0361088)
(0.0103423 0.00800832 0.0370931)
(0.0103154 0.00810278 0.037177)
(0.0214727 0.0137015 0.0343457)
(0.0218038 0.0143414 0.0338033)
(0.0194279 0.0131588 0.0386856)
(0.0216151 0.0144278 0.0362845)
(0.0212036 0.0142058 0.037168)
(0.0207672 0.0139519 0.0377768)
(0.0207526 0.0138835 0.0377604)
(0.0211758 0.0141281 0.0371495)
(0.0204688 0.0136896 0.0380572)
(0.0204671 0.0137487 0.0380767)
(0.0202614 0.0135988 0.0381947)
(0.020282 0.0135545 0.0381712)
(0.0202181 0.0134901 0.0381686)
(0.0204111 0.0136274 0.0380441)
(0.0206976 0.0138266 0.0377384)
(0.0196241 0.0132151 0.0384459)
(0.0198961 0.0133436 0.0382485)
(0.0198713 0.0133376 0.0383202)
(0.0196683 0.0132455 0.0384698)
(0.0232474 0.0178002 0.032649)
(0.0231856 0.0174528 0.0331607)
(0.0231518 0.0172304 0.0333965)
(0.0230995 0.0170322 0.0336482)
(0.023518 0.0212791 0.0383551)
(0.0236913 0.0210152 0.0376665)
(0.0237839 0.0206513 0.0368441)
(0.0239291 0.0198408 0.0320911)
(0.0237948 0.0194199 0.031782)
(0.0236432 0.0189924 0.031484)
(0.0242799 0.0207065 0.0327604)
(0.0241141 0.020289 0.0324144)
(0.023406 0.0185241 0.0311941)
(0.0231522 0.0180422 0.0309959)
(0.0237948 0.020094 0.0357285)
(0.0229878 0.0217119 0.0397189)
(0.0232649 0.0215365 0.0390691)
(0.0225073 0.0216619 0.0406016)
(0.0227428 0.0217297 0.0402144)
(0.021965 0.0214783 0.0412776)
(0.022259 0.0215806 0.0409263)
(0.0243769 0.0210705 0.0330852)
(0.0244066 0.0213142 0.033461)
(0.0243861 0.0212782 0.0335073)
(0.0243566 0.0210352 0.0331379)
(0.0225524 0.0159296 0.0351756)
(0.0195794 0.0214671 0.0445477)
(0.0219272 0.0156304 0.0329172)
(0.0218044 0.0155103 0.0330362)
(0.0208226 0.0133672 0.034606)
(0.0210895 0.0138941 0.0341299)
(0.0211654 0.0138733 0.0340454)
(0.020921 0.0132284 0.0345873)
(0.02055 0.0126226 0.0348393)
(0.020059 0.012076 0.0349405)
(0.0199971 0.0121393 0.0349858)
(0.0204689 0.0126647 0.0348912)
(0.0203145 0.0126913 0.0353053)
(0.0199568 0.0122937 0.0353607)
(0.0200054 0.0122817 0.0354403)
(0.020344 0.012658 0.0353914)
(0.0210003 0.0137386 0.0348578)
(0.0206466 0.0131301 0.0352623)
(0.0209657 0.0137931 0.0347391)
(0.0206244 0.0131962 0.0351539)
(0.0222934 0.0164844 0.0313653)
(0.0224518 0.017301 0.0312801)
(0.0219829 0.0157917 0.0309002)
(0.0225851 0.0172087 0.0312422)
(0.0226892 0.0176066 0.0325672)
(0.0227563 0.0178069 0.0323163)
(0.0227902 0.0177345 0.0322606)
(0.0227152 0.0175285 0.0325187)
(0.0226225 0.0167665 0.033503)
(0.022643 0.0169508 0.0332809)
(0.0229264 0.0174551 0.0334468)
(0.0229408 0.0177861 0.033131)
(0.0231098 0.0173133 0.0334716)
(0.0230413 0.0170615 0.0337307)
(0.0220786 0.0216482 0.0405872)
(0.0223227 0.0216599 0.0403419)
(0.0218713 0.0216114 0.0408438)
(0.0220318 0.0223318 0.0410027)
(0.0223951 0.0221824 0.0404132)
(0.0217682 0.0161224 0.0272528)
(0.0219882 0.0163983 0.0280846)
(0.0211622 0.0157149 0.0258622)
(0.0214596 0.0158851 0.0264744)
(0.0211067 0.0157546 0.0258216)
(0.0213868 0.0159119 0.0263861)
(0.0216847 0.0142976 0.0352269)
(0.0214977 0.0142548 0.0362614)
(0.0201022 0.0134301 0.0381817)
(0.0224062 0.0163771 0.0312622)
(0.0227194 0.0171802 0.0311083)
(0.0230535 0.0177491 0.0317293)
(0.0225928 0.0168357 0.0335271)
(0.0231013 0.0176537 0.0323844)
(0.0227604 0.0162721 0.0343395)
(0.0228113 0.016389 0.0340898)
(0.0225916 0.0160114 0.0348077)
(0.022674 0.0161333 0.0345831)
(0.0225284 0.0159146 0.0351775)
(0.0225528 0.0159447 0.0350002)
(0.0230663 0.0170113 0.0337277)
(0.022999 0.0168562 0.0338373)
(0.0231135 0.0175877 0.0331759)
(0.0229363 0.0167101 0.0339719)
(0.0228275 0.0170188 0.0338324)
(0.0233921 0.0184292 0.0329059)
(0.023469 0.0212269 0.0383575)
(0.023633 0.0209709 0.0376876)
(0.0232173 0.0214828 0.0390486)
(0.0220027 0.0214502 0.0411783)
(0.0222967 0.0215463 0.0408214)
(0.0216154 0.0213123 0.0416754)
(0.0223106 0.0215292 0.0407203)
(0.0224853 0.0215746 0.0404938)
(0.0221146 0.0214883 0.0409249)
(0.0220209 0.0222511 0.0410871)
(0.0225564 0.0220274 0.0404018)
(0.0233603 0.0185317 0.0312474)
(0.0218538 0.0160851 0.029901)
(0.0215519 0.01585 0.0289329)
(0.0211482 0.0155261 0.0278993)
(0.0174245 0.00946434 0.0361337)
(0.017586 0.00967195 0.0361497)
(0.0169926 0.00910068 0.0360313)
(0.0172591 0.00929734 0.0361039)
(0.0165279 0.00880422 0.0358873)
(0.0243939 0.0213703 0.0334143)
(0.0200113 0.0133886 0.0382479)
(0.0098992 0.00839306 0.0371136)
(0.0107372 0.00839298 0.0371789)
(0.0116355 0.00836871 0.0371003)
(0.0116335 0.00819119 0.0368162)
(0.010766 0.00818899 0.0369407)
(0.01255 0.0080983 0.0364495)
(0.0133856 0.00802793 0.0360286)
(0.0140103 0.00809779 0.0357412)
(0.0139864 0.00825027 0.0361619)
(0.0144785 0.00840502 0.0360152)
(0.0145398 0.00825658 0.0355824)
(0.0149361 0.00861969 0.0359523)
(0.0154093 0.00888871 0.0359751)
(0.015948 0.00920667 0.036085)
(0.0171406 0.0101064 0.0363485)
(0.0175368 0.010346 0.0362757)
(0.0179751 0.0103658 0.0357946)
(0.0174239 0.0100358 0.035961)
(0.0180499 0.0106514 0.0361344)
(0.0186007 0.0110184 0.0359349)
(0.0185244 0.0107273 0.0355885)
(0.0190346 0.0111543 0.0353441)
(0.0191102 0.0114428 0.0356875)
(0.0195664 0.0118822 0.0354702)
(0.0195205 0.0116304 0.0351227)
(0.0213841 0.0145596 0.0334332)
(0.0191573 0.0218276 0.0445147)
(0.0195988 0.0218421 0.0438332)
(0.0200217 0.0218173 0.0431255)
(0.0203919 0.0217331 0.0426447)
(0.0207213 0.0216846 0.0422677)
(0.0217786 0.0224078 0.0409682)
(0.0222375 0.0222658 0.0403103)
(0.0225771 0.0222822 0.0397388)
(0.0228781 0.0221237 0.0389876)
(0.0231379 0.0218596 0.0381691)
(0.0233537 0.0215595 0.0373959)
(0.0234935 0.0211625 0.0365129)
(0.023525 0.0206075 0.0353651)
(0.023486 0.0200484 0.0342667)
(0.0234145 0.0196393 0.0335316)
(0.0233248 0.0193371 0.0330158)
(0.023231 0.019099 0.0325752)
(0.023144 0.0189047 0.0322024)
(0.0240289 0.0216648 0.0333033)
(0.0240133 0.0214801 0.0334898)
(0.0239948 0.0213969 0.0328555)
(0.023917 0.0210632 0.0324522)
(0.023751 0.0206457 0.0320947)
(0.0235663 0.0202021 0.0317639)
(0.0234326 0.0197895 0.031441)
(0.023301 0.0193962 0.0311465)
(0.0231223 0.0190104 0.030901)
(0.0229397 0.0186739 0.0307048)
(0.0227963 0.0184284 0.0305584)
(0.0226446 0.0181498 0.0305123)
(0.0222974 0.016235 0.0351335)
(0.0222555 0.0161707 0.035118)
(0.0222504 0.0160813 0.035114)
(0.0222764 0.0161157 0.0349173)
(0.0222839 0.0162131 0.0349223)
(0.0223283 0.0162855 0.0349388)
(0.0223726 0.0163698 0.0347421)
(0.0223158 0.0161839 0.0347185)
(0.0223981 0.0163051 0.0344916)
(0.0224597 0.016507 0.0345171)
(0.0225538 0.0166595 0.034286)
(0.0224836 0.0164418 0.0342458)
(0.022533 0.0165569 0.0339903)
(0.0226191 0.0167902 0.0340706)
(0.0226764 0.0169087 0.0338927)
(0.0225637 0.0166788 0.0337444)
(0.0227466 0.0170249 0.0337742)
(0.0228232 0.0171401 0.0336853)
(0.0228576 0.0177928 0.0330358)
(0.0228839 0.0180152 0.0327532)
(0.0228027 0.0179995 0.0320069)
(0.0230746 0.018734 0.0318899)
(0.0230078 0.0185831 0.0316232)
(0.0229286 0.0184486 0.031388)
(0.0202724 0.0139641 0.0376167)
(0.0199392 0.0137211 0.0379511)
(0.0196904 0.0135503 0.0381388)
(0.0207017 0.0142199 0.0369893)
(0.020872 0.0145143 0.0370806)
(0.0212888 0.0147413 0.036232)
(0.0210811 0.0144144 0.0361805)
(0.0208189 0.0150896 0.026446)
(0.0212649 0.0144733 0.0353019)
(0.0215215 0.0148669 0.0352104)
(0.0216625 0.0150652 0.0341129)
(0.0205164 0.0152312 0.0263187)
(0.020797 0.01531 0.0270822)
(0.0222531 0.0158874 0.0306272)
(0.0221884 0.0159565 0.0299188)
(0.0214455 0.0155166 0.0279463)
(0.0211014 0.0152784 0.0271001)
(0.0222443 0.0165614 0.0314094)
(0.0221618 0.0163231 0.0316857)
(0.0220413 0.0168269 0.0288539)
(0.0219414 0.0166008 0.0282881)
(0.0223285 0.017366 0.0299479)
(0.0221711 0.0170712 0.0294474)
(0.0226922 0.0181153 0.0303973)
(0.0225113 0.0177437 0.0302347)
(0.022997 0.0186601 0.0306633)
(0.023359 0.0193908 0.0311085)
(0.0231817 0.0190048 0.0308593)
(0.0236236 0.0201934 0.0317326)
(0.0234901 0.0197827 0.0314066)
(0.0239743 0.0210535 0.0324252)
(0.0238082 0.0206361 0.0320651)
(0.0240867 0.0216579 0.0332893)
(0.0240523 0.0213883 0.0328342)
(0.023607 0.0199611 0.0321197)
(0.0237922 0.0204119 0.0324387)
(0.0233369 0.0191325 0.0315498)
(0.0234725 0.0195357 0.0318182)
(0.0231487 0.0187487 0.0313296)
(0.0230932 0.0186327 0.0315854)
(0.0232284 0.0189525 0.0321642)
(0.0231595 0.0187836 0.031853)
(0.0234045 0.0193704 0.032964)
(0.0233131 0.0191397 0.0325296)
(0.0235651 0.0200772 0.0342228)
(0.0234937 0.0196696 0.0334819)
(0.0235669 0.0211872 0.0364807)
(0.0236029 0.0206327 0.0353258)
(0.0231913 0.0218996 0.0381692)
(0.0234166 0.0215916 0.0373772)
(0.0226218 0.0223216 0.0397868)
(0.0229301 0.0221652 0.039011)
(0.0218975 0.022423 0.0409295)
(0.0222552 0.0223021 0.0403814)
(0.0207382 0.0217086 0.0423162)
(0.0200511 0.0218395 0.0431579)
(0.0204165 0.0217579 0.0426827)
(0.0191966 0.0218414 0.0445365)
(0.0196334 0.021861 0.0438597)
(0.0210446 0.0212152 0.0420651)
(0.020661 0.0212579 0.0425154)
(0.021444 0.0213469 0.0415268)
(0.0227062 0.0217052 0.0395396)
(0.022555 0.02171 0.0399497)
(0.0215699 0.0212932 0.0415787)
(0.0232056 0.0212775 0.0383049)
(0.0229562 0.0215311 0.0389608)
(0.0234216 0.0206882 0.0368749)
(0.0233553 0.0210336 0.0376635)
(0.0233744 0.0195459 0.0347109)
(0.023421 0.0201296 0.0357773)
(0.0232092 0.0188028 0.0335151)
(0.0233024 0.0191255 0.0340159)
(0.0230989 0.0185125 0.033031)
(0.0227505 0.0169093 0.0339345)
(0.0226208 0.0166581 0.0343098)
(0.0226887 0.0167913 0.034101)
(0.0225253 0.0165029 0.0345385)
(0.0226001 0.0166028 0.0337368)
(0.0225739 0.0164804 0.0339941)
(0.0226255 0.0176015 0.0315404)
(0.0227557 0.0177934 0.0317823)
(0.0217713 0.0151232 0.0340683)
(0.0213786 0.0147582 0.0362577)
(0.0216195 0.0148948 0.0352122)
(0.0204877 0.0142525 0.0377323)
(0.0209557 0.0145257 0.0371129)
(0.0199472 0.0139337 0.0381118)
(0.0197577 0.0137887 0.0382533)
(0.0195168 0.0136337 0.0383954)
(0.0192352 0.013244 0.0386218)
(0.0194327 0.0134085 0.0383438)
(0.0196706 0.013427 0.0381823)
(0.019426 0.0132932 0.0383794)
(0.0202987 0.0138781 0.0376255)
(0.0199538 0.0136323 0.0379768)
(0.0211018 0.0143222 0.036189)
(0.0207285 0.0141331 0.0369912)
(0.0212774 0.0143699 0.0353343)
(0.0196292 0.0118864 0.0355451)
(0.0186686 0.0110292 0.0360098)
(0.0191781 0.0114533 0.0357619)
(0.0175954 0.0103458 0.0363439)
(0.0181175 0.0106613 0.0362081)
(0.0154229 0.00888236 0.0360526)
(0.0159531 0.0092013 0.0361571)
(0.0145235 0.0083921 0.0361045)
(0.0149658 0.00860978 0.036037)
(0.0134263 0.00818162 0.0364928)
(0.0140377 0.00823804 0.0362491)
(0.0116911 0.00836062 0.0371648)
(0.0126074 0.00825695 0.0368576)
(0.00994487 0.00839045 0.0371623)
(0.0107876 0.00838929 0.0372357)
(0.0100212 0.00811001 0.0369097)
(0.0116884 0.00812388 0.0367859)
(0.010826 0.00811733 0.0369181)
(0.0134429 0.00796291 0.0359818)
(0.0126049 0.00803253 0.0364107)
(0.0146052 0.00819414 0.0355274)
(0.0140695 0.00803472 0.0356882)
(0.0157563 0.00863163 0.0355689)
(0.0151705 0.00838756 0.0354966)
(0.016354 0.00894312 0.035717)
(0.0175602 0.00998127 0.0359)
(0.0173246 0.00973773 0.035957)
(0.018567 0.010641 0.0355479)
(0.0180178 0.0102806 0.0357551)
(0.0195682 0.0115507 0.0350819)
(0.0190773 0.0110684 0.0353039)
(0.0208538 0.0128934 0.0347631)
(0.0210567 0.0132979 0.0345206)
(0.0213948 0.0143868 0.0334712)
(0.0215739 0.0148969 0.032721)
(0.0211579 0.0223331 0.0418018)
(0.0213025 0.0222198 0.0419858)
(0.0196003 0.013654 0.0382828)
(0.0154842 0.0105062 0.0379436)
(0.0155286 0.0105338 0.0379675)
(0.0155566 0.010582 0.0379746)
(0.0165573 0.00986306 0.0369297)
(0.0162429 0.0100966 0.0372737)
(0.0161419 0.00999183 0.0372316)
(0.0164423 0.00974726 0.0368851)
(0.0159043 0.01035 0.0376337)
(0.0158657 0.0102955 0.037626)
(0.0158176 0.010259 0.0375964)
(0.0188555 0.0230725 0.0453406)
(0.0183042 0.0231112 0.0458278)
(0.0216222 0.0223052 0.0418857)
(0.0218053 0.02224 0.0415925)
(0.0182939 0.023062 0.0457966)
(0.0165856 0.00999129 0.036821)
(0.0217076 0.0224715 0.041463)
(0.0211504 0.0222811 0.0419166)
(0.02074 0.0228785 0.0433674)
(0.0202734 0.0230321 0.0438281)
(0.0208674 0.0233502 0.0434125)
(0.0204867 0.0239004 0.0439256)
(0.0218285 0.0223296 0.041569)
(0.0219163 0.0222948 0.0413769)
(0.0181978 0.0230185 0.0457101)
(0.0211041 0.0228067 0.0429194)
(0.0210324 0.0228863 0.0431015)
(0.0203047 0.0229151 0.0438534)
(0.0205986 0.023961 0.0439513)
(0.0208996 0.0233551 0.0434002)
(0.0168257 0.00968895 0.0366087)
(0.0168371 0.00955763 0.0364936)
(0.0167237 0.00963186 0.0366531)
(0.0166867 0.00955207 0.0365578)
(0.0179764 0.0231149 0.0455095)
(0.0179571 0.0233533 0.0456192)
(0.0152885 0.0108723 0.0378581)
(0.0151311 0.0107071 0.0377906)
(0.0154796 0.0104415 0.0374217)
(0.0156685 0.0106396 0.0375027)
(0.0160232 0.0103805 0.0371365)
(0.015812 0.0101589 0.0370459)
(0.0161535 0.00988588 0.036674)
(0.0163687 0.0101116 0.0367663)
(0.0203348 0.0243757 0.0437156)
(0.0202356 0.0240206 0.043737)
(0.0205469 0.0235238 0.0432275)
(0.0206528 0.0239062 0.0431264)
(0.0208783 0.0233916 0.0425886)
(0.0214924 0.0225325 0.0413866)
(0.0208767 0.0224984 0.0422436)
(0.0212383 0.0226964 0.0417865)
(0.0210557 0.0230046 0.0421708)
(0.0204175 0.0229883 0.0431629)
(0.0203999 0.0226732 0.0429152)
(0.0199265 0.022813 0.0435164)
(0.0200334 0.0231265 0.0436191)
(0.0196433 0.0232212 0.0440565)
(0.0195087 0.0229053 0.044016)
(0.0190707 0.0229779 0.0444891)
(0.019181 0.0232876 0.044528)
(0.0185802 0.0233411 0.0450868)
(0.0185365 0.0230591 0.0450112)
(0.0161137 0.0103797 0.0371687)
(0.0164598 0.0101115 0.0367988)
(0.01537 0.0108621 0.0378865)
(0.0157553 0.010635 0.0375333)
(0.01516 0.0106419 0.0377964)
(0.015832 0.0100843 0.0370478)
(0.0155033 0.0103708 0.0374253)
(0.0161728 0.00981059 0.0366757)
(0.0220971 0.0166619 0.0313639)
(0.0226508 0.0170133 0.0331985)
(0.0226866 0.0173001 0.0328201)
(0.0213288 0.022714 0.0417769)
(0.0215964 0.0225469 0.0413631)
(0.0209506 0.0234313 0.0426025)
(0.0211355 0.0230331 0.0421726)
(0.0204002 0.0244159 0.0437577)
(0.0207213 0.0239504 0.0431557)
(0.0202781 0.0239391 0.0437883)
(0.0206209 0.0234274 0.0432985)
(0.0201104 0.0231565 0.043684)
(0.0205121 0.0230082 0.0432582)
(0.0192476 0.0233205 0.0445802)
(0.019714 0.0232551 0.0441089)
(0.0180022 0.0233742 0.0456831)
(0.0186358 0.0233693 0.0451451)
(0.0180279 0.0230564 0.0455369)
(0.0191006 0.0229075 0.0445283)
(0.0185774 0.0229933 0.0450443)
(0.0199575 0.0227418 0.0435451)
(0.0195345 0.0228338 0.0440548)
(0.0208821 0.0224099 0.0423185)
(0.0204477 0.0226011 0.04292)
(0.016689 0.00945987 0.0363405)
(0.0165989 0.00949734 0.0363261)
(0.0168711 0.00978075 0.0364408)
(0.0214877 0.0140773 0.0347558)
(0.0214052 0.014108 0.0347833)
(0.0213229 0.0141524 0.0347882)
(0.0224705 0.0167916 0.0310593)
(0.023046 0.0177915 0.0320651)
(0.0229676 0.0177904 0.0320583)
(0.0228926 0.0178081 0.0320396)
(0.0232118 0.0181458 0.0326572)
(0.0231446 0.0181711 0.0327159)
(0.0230767 0.0182055 0.03275)
(0.0231149 0.0172787 0.0334283)
(0.0214051 0.0221183 0.0416434)
(0.0231524 0.018291 0.0311852)
(0.0231177 0.0183703 0.0312245)
(0.0230725 0.0184418 0.0312452)
(0.0168929 0.0095323 0.0363906)
(0.0216388 0.0140932 0.0345889)
(0.0215654 0.0140697 0.0347017)
(0.0230303 0.0179616 0.0328542)
(0.0209665 0.0229366 0.0431475)
(0.0208759 0.0229768 0.0431177)
(0.021847 0.0220788 0.0413878)
)

// edges

682
(
(190 191)
(192 193)
(194 192)
(195 196)
(197 198)
(198 199)
(200 201)
(201 202)
(199 203)
(203 204)
(205 206)
(206 207)
(208 209)
(210 211)
(211 197)
(212 205)
(213 214)
(214 215)
(14 216)
(217 15)
(218 219)
(17 220)
(221 222)
(222 223)
(224 225)
(226 224)
(223 227)
(227 228)
(229 226)
(230 231)
(231 232)
(220 233)
(233 234)
(235 236)
(237 238)
(238 239)
(239 240)
(241 242)
(242 243)
(244 245)
(245 246)
(247 248)
(248 244)
(246 249)
(249 250)
(243 251)
(252 253)
(253 241)
(254 255)
(255 252)
(256 257)
(257 254)
(258 259)
(260 261)
(261 247)
(18 262)
(20 263)
(195 0)
(264 1)
(1 265)
(266 267)
(268 269)
(270 271)
(272 273)
(274 275)
(276 277)
(278 279)
(280 281)
(25 282)
(283 26)
(284 27)
(285 25)
(286 190)
(286 287)
(288 289)
(290 291)
(2 292)
(293 292)
(294 295)
(296 297)
(298 296)
(299 300)
(301 302)
(303 304)
(305 306)
(306 29)
(301 304)
(307 308)
(309 234)
(31 310)
(31 311)
(32 312)
(313 191)
(32 314)
(315 316)
(317 318)
(315 318)
(319 320)
(317 320)
(319 33)
(321 322)
(323 294)
(324 322)
(2 325)
(34 326)
(327 328)
(327 329)
(330 331)
(330 332)
(333 334)
(335 333)
(336 337)
(36 338)
(37 0)
(339 37)
(340 339)
(341 340)
(342 343)
(344 345)
(342 345)
(344 346)
(260 39)
(259 40)
(347 41)
(348 235)
(42 349)
(349 350)
(350 351)
(352 353)
(354 352)
(355 354)
(356 355)
(357 358)
(359 356)
(358 360)
(360 361)
(361 362)
(362 43)
(44 363)
(363 364)
(365 366)
(364 367)
(367 368)
(369 365)
(370 369)
(368 371)
(371 372)
(373 370)
(272 373)
(372 275)
(280 3)
(374 267)
(45 375)
(375 376)
(376 377)
(377 378)
(378 379)
(379 4)
(4 46)
(380 381)
(381 382)
(382 383)
(383 384)
(384 385)
(385 386)
(386 387)
(387 388)
(388 389)
(389 390)
(390 391)
(391 392)
(47 393)
(394 48)
(393 395)
(395 396)
(396 397)
(397 398)
(398 399)
(399 400)
(400 401)
(401 402)
(402 403)
(403 404)
(51 405)
(406 50)
(407 52)
(408 407)
(406 409)
(405 410)
(410 411)
(412 408)
(413 412)
(411 414)
(414 415)
(416 413)
(417 416)
(415 418)
(418 419)
(420 417)
(313 420)
(419 421)
(421 422)
(423 424)
(425 287)
(392 426)
(426 427)
(427 428)
(428 49)
(54 5)
(6 55)
(429 430)
(430 431)
(432 429)
(7 433)
(433 434)
(435 432)
(56 436)
(3 437)
(437 435)
(434 438)
(438 439)
(58 8)
(8 57)
(59 440)
(441 341)
(8 441)
(61 305)
(303 60)
(442 443)
(9 444)
(9 443)
(27 9)
(445 436)
(444 445)
(446 447)
(448 449)
(29 449)
(450 451)
(448 451)
(452 453)
(450 453)
(454 62)
(452 62)
(455 456)
(454 456)
(457 458)
(455 458)
(459 460)
(457 460)
(461 462)
(459 462)
(461 63)
(463 464)
(465 466)
(463 466)
(64 467)
(465 467)
(468 10)
(64 10)
(469 470)
(468 470)
(471 472)
(469 472)
(473 474)
(471 474)
(475 476)
(473 476)
(477 478)
(475 478)
(479 480)
(477 480)
(481 482)
(479 482)
(483 11)
(65 11)
(484 485)
(483 485)
(486 487)
(484 487)
(486 66)
(488 489)
(298 490)
(488 490)
(491 492)
(493 335)
(297 492)
(494 495)
(491 495)
(496 497)
(494 497)
(498 499)
(496 499)
(500 501)
(498 501)
(67 502)
(500 502)
(293 68)
(67 68)
(503 325)
(504 505)
(503 505)
(504 506)
(507 508)
(507 290)
(69 288)
(509 510)
(69 510)
(24 446)
(509 283)
(511 264)
(512 513)
(511 513)
(514 515)
(512 515)
(516 517)
(7 516)
(518 5)
(517 518)
(519 70)
(520 431)
(521 522)
(519 522)
(6 520)
(523 524)
(521 524)
(525 526)
(523 526)
(71 527)
(525 527)
(71 278)
(528 276)
(529 530)
(528 530)
(531 532)
(529 532)
(73 72)
(531 72)
(533 534)
(74 534)
(535 536)
(533 536)
(537 538)
(535 538)
(539 540)
(537 540)
(541 542)
(539 542)
(541 75)
(543 76)
(544 545)
(543 545)
(546 547)
(544 547)
(548 549)
(546 549)
(550 551)
(548 551)
(550 552)
(553 554)
(555 556)
(553 556)
(557 558)
(555 558)
(559 560)
(557 271)
(561 268)
(196 562)
(561 562)
(46 563)
(28 564)
(7 565)
(78 566)
(567 77)
(568 79)
(569 570)
(571 572)
(570 573)
(573 568)
(567 574)
(566 575)
(575 571)
(576 577)
(578 579)
(81 580)
(22 581)
(299 582)
(65 583)
(584 82)
(585 584)
(586 587)
(82 586)
(588 589)
(589 336)
(590 83)
(591 592)
(82 84)
(592 82)
(593 84)
(594 595)
(82 595)
(596 23)
(597 598)
(599 21)
(600 85)
(86 601)
(87 602)
(603 88)
(604 603)
(602 605)
(605 606)
(607 604)
(608 607)
(609 44)
(43 608)
(89 610)
(611 90)
(612 611)
(610 613)
(613 614)
(91 612)
(380 615)
(563 616)
(617 615)
(614 618)
(618 617)
(619 91)
(616 620)
(620 621)
(622 619)
(623 622)
(621 624)
(624 625)
(626 623)
(627 626)
(625 628)
(628 600)
(601 627)
(629 630)
(44 630)
(631 632)
(629 632)
(631 92)
(633 93)
(634 635)
(633 635)
(43 636)
(634 636)
(1 637)
(0 27)
(637 26)
(638 291)
(638 639)
(279 277)
(281 274)
(266 273)
(640 641)
(642 643)
(640 643)
(644 645)
(642 645)
(644 94)
(646 95)
(96 647)
(646 647)
(648 649)
(650 651)
(648 651)
(652 653)
(650 653)
(652 97)
(654 98)
(655 656)
(654 656)
(657 658)
(655 658)
(659 660)
(657 660)
(659 583)
(269 270)
(641 481)
(639 289)
(21 661)
(661 662)
(663 22)
(22 23)
(664 665)
(665 666)
(667 25)
(26 24)
(668 669)
(669 670)
(671 672)
(672 673)
(674 295)
(12 28)
(28 675)
(676 677)
(677 678)
(29 302)
(217 30)
(23 679)
(679 21)
(680 681)
(681 664)
(31 667)
(32 668)
(674 323)
(34 671)
(263 35)
(250 36)
(36 676)
(216 38)
(24 25)
(404 62)
(49 64)
(64 678)
(675 65)
(65 46)
(67 673)
(682 68)
(69 670)
(282 24)
(71 666)
(44 72)
(44 73)
(73 663)
(662 74)
(74 43)
(23 581)
(12 564)
(82 683)
(683 684)
(12 685)
(585 84)
(27 37)
(91 96)
(96 684)
(13 14)
(15 13)
(16 17)
(99 16)
(100 18)
(101 100)
(19 20)
(102 19)
(103 104)
(105 103)
(106 107)
(108 106)
(109 110)
(17 109)
(111 112)
(113 111)
(114 115)
(116 114)
(117 118)
(119 117)
(120 121)
(122 120)
(123 124)
(125 123)
(30 15)
(107 30)
(33 116)
(18 33)
(126 101)
(118 126)
(35 122)
(20 35)
(127 102)
(124 127)
(128 129)
(38 105)
(14 38)
(130 131)
(132 130)
(133 132)
(39 133)
(40 39)
(41 40)
(134 41)
(135 134)
(136 135)
(137 136)
(138 99)
(112 138)
(139 42)
(140 139)
(141 45)
(142 141)
(143 47)
(48 143)
(50 51)
(52 50)
(53 54)
(55 53)
(56 128)
(57 58)
(58 56)
(144 59)
(59 57)
(60 61)
(145 60)
(146 147)
(61 146)
(148 149)
(147 148)
(150 151)
(149 150)
(152 144)
(151 152)
(129 153)
(154 145)
(153 154)
(63 137)
(47 63)
(155 48)
(131 155)
(66 125)
(45 66)
(156 142)
(121 156)
(157 119)
(51 157)
(158 52)
(115 158)
(159 113)
(54 159)
(70 55)
(110 70)
(75 108)
(42 75)
(76 140)
(104 76)
(77 78)
(79 77)
(160 80)
(161 160)
(162 81)
(163 162)
(164 165)
(166 164)
(167 168)
(169 167)
(170 171)
(172 170)
(173 174)
(175 173)
(176 177)
(178 176)
(179 180)
(181 179)
(182 161)
(180 182)
(83 172)
(81 83)
(183 163)
(174 183)
(184 178)
(80 184)
(185 79)
(168 185)
(186 166)
(78 186)
(85 187)
(187 86)
(188 87)
(88 188)
(189 89)
(90 189)
(92 169)
(87 92)
(93 88)
(165 93)
(94 181)
(89 94)
(95 90)
(177 95)
(97 175)
(86 97)
(98 85)
(171 98)
)

// concaveStart mixedStart nonFeatureStart
12 13 99
// internalStart flatStart openStart multipleStart
481 537 537 682
// normals

1097
(
(-0.0189314 -0.895899 0.443854)
(-0.0328817 -0.300608 0.953181)
(0.313098 -0.928736 0.198543)
(0.773772 -0.540611 0.330176)
(0.866103 -0.470106 0.169899)
(0.96635 -0.106106 0.234326)
(0.764515 -0.0653993 0.641279)
(0.625166 0.537116 0.566281)
(-0.0146794 -0.588611 -0.808283)
(-0.0228379 -0.750532 -0.66044)
(-0.098529 0.259285 0.960762)
(-0.135146 0.228959 0.964009)
(-0.46074 -0.886939 -0.0325282)
(-0.261654 -0.965015 0.0168158)
(0.708179 0.640336 0.29741)
(0.584808 0.777967 0.229712)
(-0.472976 -0.872399 -0.123344)
(-0.364957 -0.922101 -0.128595)
(0.714506 0.638842 0.285241)
(0.665784 0.708305 0.234595)