/*--------------------------------*- C++ -*----------------------------------*\
| =========                 |                                                 |
| \\      /  F ield         | OpenFOAM: The Open Source CFD Toolbox           |
|  \\    /   O peration     | Version:  4.1                                   |
|   \\  /    A nd           | Web:      www.OpenFOAM.org                      |
|    \\/     M anipulation  |                                                 |
\*---------------------------------------------------------------------------*/
FoamFile
{
    version     2.0;
    format      ascii;
    class       dictionary;
    object      blockMeshDict;
}
// * * * * * * * * * * * * * * * * * * * * * * * * * * * * * * * * * * * * * //

convertToMeters 1;

vertices
(
    (0.0255 0.0075 0.0245)
    (0.0255 0.0275 0.0245)
    (0.0075 0.0275 0.0245)
    (0.0075 0.0075 0.0245)
    (0.0255 0.0075 0.0465)
    (0.0255 0.0275 0.0465)
    (0.0075 0.0275 0.0465)
    (0.0075 0.0075 0.0465)

);

blocks
(
    hex (0 1 2 3 4 5 6 7) (200 180 220) simpleGrading (1 1 1)
);

edges
(
);

boundary
(
    allBoundary
    {
        type patch;
        faces
        (
            (4 0 3 7)
            (5 6 2 1)
            (7 6 5 4)
            (4 5 1 0)
            (3 0 1 2)
            (3 2 6 7)
        );
    }
);

mergePatchPairs
(
);

// ************************************************************************* //
