/*--------------------------------*- C++ -*----------------------------------*\
| =========                 |                                                 |
| \\      /  F ield         | OpenFOAM: The Open Source CFD Toolbox           |
|  \\    /   O peration     | Version:  dev                                   |
|   \\  /    A nd           | Web:      www.OpenFOAM.org                      |
|    \\/     M anipulation  |                                                 |
\*---------------------------------------------------------------------------*/
FoamFile
{
    version     2.0;
    format      ascii;
    class       polyBoundaryMesh;
    location    "constant/polyMesh";
    object      boundary;
}
// * * * * * * * * * * * * * * * * * * * * * * * * * * * * * * * * * * * * * //

3
(
    Inlet
    {
        type            wall;
        inGroups        1(wall);
        nFaces          900;
        startFace       131100;
    }
    Outlet
    {
        type            wall;
        inGroups        1(wall);
        nFaces          900;
        startFace       132000;
    }
    NoSlipWall
    {
        type            wall;
        inGroups        1(wall);
        nFaces          6000;
        startFace       132900;
    }
)

// ************************************************************************* //
