/*--------------------------------*- C++ -*----------------------------------*\
| =========                 |                                                 |
| \\      /  F ield         | OpenFOAM: The Open Source CFD Toolbox           |
|  \\    /   O peration     | Version:  dev                                   |
|   \\  /    A nd           | Web:      www.OpenFOAM.org                      |
|    \\/     M anipulation  |                                                 |
\*---------------------------------------------------------------------------*/
FoamFile
{
    version     2.0;
    format      ascii;
    class       polyBoundaryMesh;
    location    "constant/polyMesh";
    object      boundary;
}
// * * * * * * * * * * * * * * * * * * * * * * * * * * * * * * * * * * * * * //

7
(
    inlet
    {
        type            wall;
        inGroups        1(wall);
        nFaces          31;
        startFace       32184;
    }
    outlet2
    {
        type            wall;
        inGroups        1(wall);
        nFaces          3;
        startFace       32215;
    }
    outlet3
    {
        type            wall;
        inGroups        1(wall);
        nFaces          4;
        startFace       32218;
    }
    outlet5
    {
        type            wall;
        inGroups        1(wall);
        nFaces          3;
        startFace       32222;
    }
    outlet7
    {
        type            wall;
        inGroups        1(wall);
        nFaces          4;
        startFace       32225;
    }
    outlet8
    {
        type            wall;
        inGroups        1(wall);
        nFaces          8;
        startFace       32229;
    }
    walls
    {
        type            wall;
        inGroups        1(wall);
        nFaces          15361;
        startFace       32237;
    }
)

// ************************************************************************* //
